** The electrical units are chosen so that the permittivity is unity.
**
** To interpret the simulated electric potential in volts for a real material:
**
**       real potential = simulated potential/sqrt(real permittivity)
**
** To interpret the simulated charge in coulombs for a real material:
** 
**       real charge = simulated charge*sqrt(real permittivity)
**
** REDUCED INTEGRATION: In order to use reduced integration three 
**     changes should be made:
**
**     1. The element type of the dummy mesh should be changed
**        from CPE4 to CPE4R.
**     2. In the Material Definition section of this input file,
**        the '*Hourglass Stiffness' command and subsequent line
**        should be uncommented.
**     3. In the UEL subroutine, nInt should be set to 1.
**
** Shuolun Wang, Nov, 2021
**
************************************************************************
**			PARAMETERS
************************************************************************
*Parameter
**
**
** diffusivity(micro^2/?) 
Diff_u = 400*3.0e-2
Diff_v = 400*1.0e-2
**
** feeding rate and kill rate (1/?)
**
** Mitosis
F_const = 0.028
k_const = 0.062
**
** Solitons
***F_const = 0.03
***k_const = 0.06
**
** flower
***F_const = 0.055
***k_const = 0.062
**
** fingers
***F_const = 0.037
***k_const = 0.06
** 
**
** Uskate
***F_const = 0.062
***k_const = 0.061
**
** Maze
***F_const = 0.029
***k_const = 0.057
**
**
** rate constant for ode (1/?)
ph = 10.0
** threshold 
Tr = 0.1
**
**
** A rate constant to rescale time and space
gamma = 1.0 
**gamma = 0.1 
**
**
**
** strength constant for electric field coupling 
** (micro^2 ?-1 mV-1)
sigma = 0.0
**
**
** permittivity of the brain tissue 
permittivity = 1.0
**
**
** applied electric potential (millivolt)
potential_neg = -75.0
potential_pos =  75.0
**
** total simulation time (?) 
time_total = 2000.0
dt_max = 10.0
**
** number of local SDV's (used in the solution proceedure)
nlSdv = 3
**
** number of global SDV's (used for plotting)
ngSdv = 3
**
**
************************************************************************
**			MODEL DEFINITION
************************************************************************
*Node
      1,   3226.85376,    5312.9043
      2,   3290.67334,   4809.56982
      3,   3303.85498,   4311.41211
      4,   3395.85303,   3828.33325
      5,   3485.49292,   3362.02783
      6,   3558.31812,   2902.40356
      7,   3535.29199,   2481.71411
      8,   3382.55176,   2019.00659
      9,   3143.26514,   1577.67957
     10,   2901.60303,   1134.46655
     11,   2433.82251,    1360.4397
     12,   2548.52197,   1882.19397
     13,   2721.51978,   2328.97534
     14,    2872.1123,   2640.67651
     15,   2914.88672,   2904.45679
     16,   2895.25659,   3276.03589
     17,   2847.78125,   3774.42676
     18,    2811.3374,   4312.15332
     19,   2865.62573,    4825.5752
     20,   2311.68799,   205.195007
** ... 12560 like lines cut
*User Element,Nodes=4,Type=U1,Iproperties=2,Properties=9,Coordinates=2,Variables=12,Unsymm
1,2,11,12,13
**
*Element, type=U1
 1, 802, 801,  22,  23
 2, 802,  23,  24,  25
 3,  28, 805, 806,  27
 4, 801, 806, 805, 804
 5, 805,  28,  29,  30
 6, 803, 806, 801, 802
 7, 801, 804,   1,  22
 8, 803, 802,  25,  26
 9, 803,  26,  27, 806
10,  30,   1, 804, 805
11, 811,  36,  37,  38
12, 808, 807,  31,  32
13,  36, 811, 809,  35
14, 810, 811,  38,  39
15, 812, 809, 811, 810
16,  31, 807, 812,   2
17, 808,  32,  33,  34
18, 809, 808,  34,  35
19, 808, 809, 812, 807
20,  39,   2, 812, 810
** ... 12259 like lines cut
*System
*Nset, nset=all, generate
     1,  12580,      1
*Elset, elset=all, generate
     1,  12279,      1
*Nset, nset=soma
     1,     2,     3,     4,     5,     6,     7,     8,     9,    10,    11,    12,    13,    14,    15,    16
    17,    18,    19,    21,    22,    23,    24,    25,    26,    27,    28,    29,    30,    31,    32,    33
    34,    35,    36,    37,    38,    39,    40,    41,    42,    43,    44,    45,    46,    47,    48,    49
    50,    51,    52,    53,    54,    55,    56,    57,    58,    59,    60,    61,    62,    63,    64,    65
    66,    67,    68,    69,    70,    71,    72,    73,    74,    75,    76,    77,    78,    79,    80,    81
    82,    83,    84,    85,    86,    87,    88,    89,    90,    91,    92,    93,    94,    95,    96,    97
    98,    99,   100,   101,   102,   103,   104,   105,   106,   107,   108,   109,   110,   111,   112,   113
   114,   115,   116,   117,   118,   119,   120,   121,   122,   123,   124,   125,   126,   127,   128,   129
   130,   131,   132,   133,   134,   135,   136,   137,   138,   139,   140,   141,   142,   143,   144,   145
   146,   147,   148,   149,   150,   151,   152,   153,   154,   155,   156,   157,   158,   159,   160,   161
   162,   163,   164,   165,   166,   167,   168,   169,   170,   171,   172,   173,   174,   175,   176,   177
   178,   179,   180,   181,   182,   183,   184,   185,   186,   187,   188,   189,   190,   191,   192,   792
   793,   794,   795,   796,   797,   798,   799,   800,   801,   802,   803,   804,   805,   806,   807,   808
   809,   810,   811,   812,   813,   814,   815,   816,   817,   818,   819,   820,   821,   822,   823,   824
   825,   826,   827,   828,   829,   830,   831,   832,   833,   834,   835,   836,   837,   838,   839,   840
   841,   842,   843,   844,   845,   846,   847,   848,   849,   850,   851,   852,   853,   854,   855,   856
   857,   858,   859,   860,   861,   862,   863,   864,   865,   866,   867,   868,   869,   870,   871,   872
   873,   874,   875,   876,   877,   878,   879,   880,   881,   882,   883,   884,   885,   886,   887,   888
   889,   890,   891,   892,   893,   894,   895,   896,   897,   898,   899,   900, 12575, 12576, 12577, 12578
 12579, 12580
*Elset, elset=soma
     1,     2,     3,     4,     5,     6,     7,     8,     9,    10,    11,    12,    13,    14,    15,    16
    17,    18,    19,    20,    21,    22,    23,    24,    25,    26,    27,    28,    29,    30,    31,    32
    33,    34,    35,    36,    37,    38,    39,    40,    41,    42,    43,    44,    45,    46,    47,    48
    49,    50,    51,    52,    53,    54,    55,    56,    57,    58,    59,    60,    61,    62,    63,    64
    65,    66,    67,    68,    69,    70,    71,    72,    73,    74,    75,    76,    77,    78,    79,    80
    81,    82,    83,    84,    85,    86,    87,    88,    89,    90,    91,    92,    93,    94,    95,    96
    97,    98,    99,   100,   101,   102,   103,   104,   105,   106,   107,   108,   109,   110,   111,   112
   113,   114,   115,   116,   117,   118,   119,   120,   121,   122,   123,   124,   125,   126,   127,   128
   129,   130,   131,   132,   133,   134,   135,   136,   137,   138,   139,   140,   141,   142,   143,   144
   145,   146,   147,   148,   149,   150,   151,   152,   153,   154,   155,   156,   157,   158,   159,   160
   161,   162,   163,   164,   165,   166,   167,   168,   169,   170,   171,   172,   173,   174,   175,   176
 12270, 12271, 12272, 12273, 12274, 12275, 12276, 12277, 12278, 12279
** Make the dummy mesh, shares nodes with the real mesh,
**  allows visualization of the results, access to 
**  hourglass controls, and access to mechanical, 
**  traction-type boundary conditions
**
*Element, type=CPE4
100001,802,801,22,23
100002,802,23,24,25
100003,28,805,806,27
100004,801,806,805,804
100005,805,28,29,30
100006,803,806,801,802
100007,801,804,1,22
100008,803,802,25,26
100009,803,26,27,806
100010,30,1,804,805
100011,811,36,37,38
100012,808,807,31,32
100013,36,811,809,35
100014,810,811,38,39
100015,812,809,811,810
100016,31,807,812,2
100017,808,32,33,34
100018,809,808,34,35
100019,808,809,812,807
100020,39,2,812,810
** ... 12259 like lines cut
*Elset, elset=ElDummy, generate
100001,  112279,    1
**
** Make a dummy element which is not connected to anything with CPE4T
**  just so that we can have the coupled thermal-displacement
**
*Node
999996,  0.0, 0.0
999997,  .00001, 0.0
999998,  .00001, .00001
999999,  0.0, .00001
*Nset, nset=tempElement
999996,999997,999998,999999
*Element, Type=CPE4T
999999,999996,999997,999998,999999
*Elset,elset=tempElement
999999
**
**
************************************************************************
**			MATERIAL DEFINITION*Include, Input=parameter.inp
************************************************************************
**
** Material properties for the real material
**
*uel property,elset=all
*******************************************************************
<Diff_u>,<Diff_v>,<F_const>,<k_const>,<ph>,<Tr>,<gamma>,<sigma>,
<permittivity>,<nlSdv>,<ngSdv>
*******************************************************************
**
** Dummy mesh material properties
**
*Solid section, elset=ElDummy, material=Material-1
***Hourglass stiffness
**<Ghour>
*Solid section, elset=tempElement, material=Material-2
**
*Material, name=Material-1
** The dummy mesh stiffness is very small
*User output variables
<ngSdv>
*Elastic
1.e-20
*Density
1.0
**
*Material, name=Material-2
*Elastic
1.e-20
*Conductivity
1.0
*Density
1.0
*Specific heat
1.0
**
************************************************************************
**			INITIAL CONDITIONS
************************************************************************
*Initial conditions, type=temperature
all,  1.0,0.0,0.0
soma, 0.5,0.25,0.0
*Initial Conditions, type=TEMPERATURE
tempElement, 0.0,0.0,0.0
************************************************************************
**			STEP DEFINITION
************************************************************************
*Step, name=HeatTransfer, nlgeom=YES, inc=50000, amplitude=step
*** *Coupled Temperature-displacement, steady state
*Coupled Temperature-displacement, deltmx=100.0
0.001, <time_total>, 1e-10, <dt_max>
*Controls, Parameters=Time Incrementation
,,,,,,,20,,,,,,
**
*Boundary
all,1,6
tempElement,1,6
**
*Output, field
*node output, nset=all
u,nt
*Element output, elset=ElDummy
le,uvarm
**
*End Step
************************************************************************
