*Heading
2D plane-strain, Neural Dendrite growth
**
** This input file is for the simulation of a 2D plane-strain, 
**    bilayer beam, bending actuator.  It is to be used use UEL 
**    subroutine, uel_dielectric_2D.for.
**
** UNITS:  Length - meters, Time - sec, Angle - radians,
**	   Force - Newtons, Stress - Newton/meter^2 = Pa, 
**	   Mass - kilograms, Density - kg/meter^3, Energy - Joules
**
** The electrical units are chosen so that the permittivity is unity.
**
** To interpret the simulated electric potential in volts for a real material:
**
**       real potential = simulated potential/sqrt(real permittivity)
**
** To interpret the simulated charge in coulombs for a real material:
** 
**       real charge = simulated charge*sqrt(real permittivity)
**
** REDUCED INTEGRATION: In order to use reduced integration three 
**     changes should be made:
**
**     1. The element type of the dummy mesh should be changed
**        from CPE4 to CPE4R.
**     2. In the Material Definition section of this input file,
**        the '*Hourglass Stiffness' command and subsequent line
**        should be uncommented.
**     3. In the UEL subroutine, nInt should be set to 1.
**
** Shuolun Wang, Nov, 2021
**
************************************************************************
**			PARAMETERS
************************************************************************
*Parameter
**
**
** diffusivity 
Diff_u = 4.0e-2
Diff_v = 1.0e-2
**
** feeding rate and kill rate 
**
** Mitosis
***F_const = 0.028
***k_const = 0.062
**
** Solitons
***F_const = 0.03
***k_const = 0.06
**
** flower
***F_const = 0.055
***k_const = 0.062
**
** fingers
***F_const = 0.037
***k_const = 0.06
** 
**
** play around
***F_const = 0.03
***k_const = 0.062
**
** verification 
F_const = 0.028
k_const = 0.06
**
** rate constant for ode 
ph = 10.0
** threshold 
Tr = 0.1
**
**
** A rate constant to rescale time and space
gamma = 1.0 
**
**
**
** strength constant for electric field coupling
sigma = 0.05
**
**
** permittivity of the brain tissue 
permittivity = 1.0
**
**
** applied electric potential (volt)
potential_neg = -1.0
potential_pos =  1.0
**
** total simulation time 
time_total = 5000.0
dt_max = 1.0
**
** number of local SDV's (used in the solution proceedure)
nlSdv = 3
**
** number of global SDV's (used for plotting)
ngSdv = 3
**
************************************************************************
**			MODEL DEFINITION
************************************************************************
*Node
      1,           1.,           1.,          50.
      2,           1.,           0.,          50.
      3,           1.,           1.,   49.8333321
      4,           1.,           0.,   49.8333321
      5,           1.,           1.,   49.6666679
      6,           1.,           0.,   49.6666679
      7,           1.,           1.,         49.5
      8,           1.,           0.,         49.5
      9,           1.,           1.,   49.3333321
     10,           1.,           0.,   49.3333321
     11,           1.,           1.,   49.1666679
     12,           1.,           0.,   49.1666679
     13,           1.,           1.,          49.
     14,           1.,           0.,          49.
     15,           1.,           1.,   48.8333321
     16,           1.,           0.,   48.8333321
     17,           1.,           1.,   48.6666679
     18,           1.,           0.,   48.6666679
     19,           1.,           1.,         48.5
     20,           1.,           0.,         48.5
** ... 1184 like lines cut
*Nset, nset=initialpt   
1,
2,
3,
4,
5,
6,
7,
8,
9,
10,
603,
604,
605,
606,
607,
608,
609,
610,
611,
612,      
*User Element,Nodes=8,Type=U3,Iproperties=2,Properties=9,Coordinates=3,Variables=24,Unsymm
1,2,3,11,12,13    
*Element, type=U3
  1,  603,  604,  606,  605,    1,    2,    4,    3
  2,  605,  606,  608,  607,    3,    4,    6,    5
  3,  607,  608,  610,  609,    5,    6,    8,    7
  4,  609,  610,  612,  611,    7,    8,   10,    9
  5,  611,  612,  614,  613,    9,   10,   12,   11
  6,  613,  614,  616,  615,   11,   12,   14,   13
  7,  615,  616,  618,  617,   13,   14,   16,   15
  8,  617,  618,  620,  619,   15,   16,   18,   17
  9,  619,  620,  622,  621,   17,   18,   20,   19
 10,  621,  622,  624,  623,   19,   20,   22,   21
 11,  623,  624,  626,  625,   21,   22,   24,   23
 12,  625,  626,  628,  627,   23,   24,   26,   25
 13,  627,  628,  630,  629,   25,   26,   28,   27
 14,  629,  630,  632,  631,   27,   28,   30,   29
 15,  631,  632,  634,  633,   29,   30,   32,   31
 16,  633,  634,  636,  635,   31,   32,   34,   33
 17,  635,  636,  638,  637,   33,   34,   36,   35
 18,  637,  638,  640,  639,   35,   36,   38,   37
 19,  639,  640,  642,  641,   37,   38,   40,   39
 20,  641,  642,  644,  643,   39,   40,   42,   41
** ... 280 like lines cut
*Nset, nset=bar-1_Left
   1,   2, 603, 604
*Elset, elset=bar-1_Left
 1,
*Nset, nset=bar-1_Right
  601,  602, 1203, 1204
*Elset, elset=bar-1_Right
 300,
*Nset, nset=bar-1_All, generate
    1,  1204,     1
*Elset, elset=bar-1_All, generate
   1,  300,    1
**
** Make the dummy mesh, shares nodes with the real mesh,
**  allows visualization of the results, access to 
**  hourglass controls, and access to mechanical, 
**  traction-type boundary conditions
**
*Element, type=C3D8
10001,603,604,606,605,1,2,4,3
10002,605,606,608,607,3,4,6,5
10003,607,608,610,609,5,6,8,7
10004,609,610,612,611,7,8,10,9
10005,611,612,614,613,9,10,12,11
10006,613,614,616,615,11,12,14,13
10007,615,616,618,617,13,14,16,15
10008,617,618,620,619,15,16,18,17
10009,619,620,622,621,17,18,20,19
10010,621,622,624,623,19,20,22,21
10011,623,624,626,625,21,22,24,23
10012,625,626,628,627,23,24,26,25
10013,627,628,630,629,25,26,28,27
10014,629,630,632,631,27,28,30,29
10015,631,632,634,633,29,30,32,31
10016,633,634,636,635,31,32,34,33
10017,635,636,638,637,33,34,36,35
10018,637,638,640,639,35,36,38,37
10019,639,640,642,641,37,38,40,39
10020,641,642,644,643,39,40,42,41
** ... 280 like lines cut
*Elset, elset=ElDummy, generate
10001,  10300,    1
**
** Make a dummy element which is not connected to anything with CPE4T
**  just so that we can have the coupled thermal-displacement
**
*Node
999996,  0.0, 0.0
999997,  .00001, 0.0
999998,  .00001, .00001
999999,  0.0, .00001
*Nset, nset=tempElement
999996,999997,999998,999999
*Element, Type=CPE4T
999999,999996,999997,999998,999999
*Elset,elset=tempElement
999999
**
************************************************************************
**			MATERIAL DEFINITION*Include, Input=parameter.inp
************************************************************************
**
** Material properties for the real material
**
*uel property,elset=bar-1_All
*******************************************************************
<Diff_u>,<Diff_v>,<F_const>,<k_const>,<ph>,<Tr>,<gamma>,<sigma>,
<permittivity>,<nlSdv>,<ngSdv>
*******************************************************************
**
** Dummy mesh material properties
**
*Solid section, elset=ElDummy, material=Material-1
***Hourglass stiffness
**<Ghour>
*Solid section, elset=tempElement, material=Material-2
**
*Material, name=Material-1
** The dummy mesh stiffness is very small
*User output variables
<ngSdv>
*Elastic
1.e-20
*Density
1.0
**
*Material, name=Material-2
*Elastic
1.e-20
*Conductivity
1.0
*Density
1.0
*Specific heat
1.0
**
************************************************************************
**			INITIAL CONDITIONS 
************************************************************************
*Initial conditions, type=temperature
bar-1_All,  1.0,0.0,0.0
initialpt, 0.5,0.25,0.0
*Initial Conditions, type=TEMPERATURE
tempElement, 0.0,0.0,0.0
************************************************************************
**			STEP DEFINITION
************************************************************************
*Step, name=HeatTransfer, nlgeom=YES, inc=50000, amplitude=step
*** *Coupled Temperature-displacement, steady state
*Coupled Temperature-displacement, deltmx=100.0
0.001, <time_total>, 1e-10, <dt_max>
*Controls, Parameters=Time Incrementation
,,,,,,,20,,,,,,
**
*Boundary
bar-1_All,1,6
tempElement,1,6
*Boundary 
bar-1_Left,13,13,<potential_pos>
bar-1_Right,13,13,<potential_neg>
**
*Output, field
*node output, nset=bar-1_All
u,nt
*Element output, elset=ElDummy
le,uvarm
**
*End Step
************************************************************************
