** The electrical units are chosen so that the permittivity is unity.
**
** To interpret the simulated electric potential in volts for a real material:
**
**       real potential = simulated potential/sqrt(real permittivity)
**
** To interpret the simulated charge in coulombs for a real material:
**
**       real charge = simulated charge*sqrt(real permittivity)
**
** REDUCED INTEGRATION: In order to use reduced integration three
**     changes should be made:
**
**     1. The element type of the dummy mesh should be changed
**        from CPE4 to CPE4R.
**     2. In the Material Definition section of this input file,
**        the '*Hourglass Stiffness' command and subsequent line
**        should be uncommented.
**     3. In the UEL subroutine, nInt should be set to 1.
**
** Shuolun Wang, Nov, 2021
**
************************************************************************
**			PARAMETERS
************************************************************************
*Parameter
**
**
** diffusivity(micro^2/?)
Diff_u = 0.25*3.0e-2
Diff_v = 0.25*1.0e-2
**
** feeding rate and kill rate (1/?)
**
** Mitosis
F_const = 0.028
k_const = 0.062
**
** Solitons
***F_const = 0.03
***k_const = 0.06
**
** flower
***F_const = 0.055
***k_const = 0.062
**
** fingers
***F_const = 0.037
***k_const = 0.06
**
**
** Uskate
***F_const = 0.062
***k_const = 0.061
**
** Maze
***F_const = 0.029
***k_const = 0.057
**
**
** rate constant for ode (1/?)
ph = 10.0
** threshold
Tr = 0.1
**
**
** A rate constant to rescale time and space
gamma = 1.0
**gamma = 0.1
**
**
**
** strength constant for electric field coupling
** (micro^2 ?-1 mV-1)
sigma = 0.0
**
**
** permittivity of the brain tissue
permittivity = 1.0
**
**
** applied electric potential (millivolt)
potential_neg = -75.0
potential_pos =  75.0
**
** total simulation time (?)
time_total = 5000.0
dt_max = 50.0
**
** number of local SDV's (used in the solution proceedure)
nlSdv = 3
**
** number of global SDV's (used for plotting)
ngSdv = 3
**
**
************************************************************************
**			MODEL DEFINITION
************************************************************************
*Node
      1,    14.071249,   0.37070331
      2,         -25.,           0.
      3,  -15.8679142,  0.496714026
      4,   14.0000839, -0.0129325362
      5,   14.0811472, -0.394599527
      6,   14.3020973, -0.716192305
      7,   14.6292963, -0.928751349
      8,   15.0129328, -0.999916375
      9,   15.3945999, -0.918853223
     10,   15.7161922, -0.697902977
     11,    15.928751,  -0.37070331
     12,   15.9999161, 0.0129325362
     13,   15.9188528,  0.394599527
     14,   15.6979027,  0.716192305
     15,   15.3707037,  0.928751349
     16,   14.9870672,  0.999916375
     17,   14.6054001,  0.918853223
     18,   14.2838078,  0.697902977
     19,  -24.9869785, -0.403405458
     20,  -24.9480858, -0.805144012
** ... 7763 like lines cut
*User Element,Nodes=4,Type=U1,Iproperties=2,Properties=9,Coordinates=2,Variables=12,Unsymm
1,2,11,12,13
**
*Element, type=U1
 1, 334,   7,   8, 348
 2,   5, 333, 335,   4
 3, 343, 336, 346, 358
 4, 353, 352, 338, 337
 5, 341, 340, 335, 355
 6, 341, 346, 342, 345
 7, 337, 342, 346, 336
 8,  15,  16, 338, 352
 9, 335, 340,   1,   4
10, 333,   5,   6, 347
11, 342, 337, 338, 339
12, 345, 344, 340, 341
13, 349, 336, 343, 348
14,  11, 351, 350,  10
15, 351,  11,  12, 354
16, 354, 357, 353, 337
17,  13,  14, 353, 357
18, 339, 338,  16,  17
19, 340, 344,  18,   1
20, 345, 342, 339, 344
** ... 7612 like lines cut
*Nset, nset=oval-1_all, generate
    1,  7783,     1
*Elset, elset=oval-1_all, generate
    1,  7632,     1
*Nset, nset=oval-1_initialpt
    1,    3,    4,    5,    6,    7,    8,    9,   10,   11,   12,   13,   14,   15,   16,   17
   18,  318,  319,  320,  321,  322,  323,  324,  325,  326,  327,  328,  329,  330,  331,  332
  333,  334,  335,  336,  337,  338,  339,  340,  341,  342,  343,  344,  345,  346,  347,  348
  349,  350,  351,  352,  353,  354,  355,  356,  357,  358, 7758, 7759, 7760, 7761, 7762, 7763
 7764, 7765, 7766, 7767, 7768, 7769, 7770, 7771, 7772, 7773, 7774, 7775, 7776, 7777, 7778, 7779
 7780, 7781, 7782, 7783
*Elset, elset=oval-1_initialpt
    1,    2,    3,    4,    5,    6,    7,    8,    9,   10,   11,   12,   13,   14,   15,   16
   17,   18,   19,   20,   21,   22,   23,   24,   25,   26,   27,   28,   29,   30,   31,   32
   33, 7600, 7601, 7602, 7603, 7604, 7605, 7606, 7607, 7608, 7609, 7610, 7611, 7612, 7613, 7614
 7615, 7616, 7617, 7618, 7619, 7620, 7621, 7622, 7623, 7624, 7625, 7626, 7627, 7628, 7629, 7630
 7631, 7632
** Make the dummy mesh, shares nodes with the real mesh,
**  allows visualization of the results, access to
**  hourglass controls, and access to mechanical,
**  traction-type boundary conditions
**
*Element, type=CPE4
10001,334,7,8,348
10002,5,333,335,4
10003,343,336,346,358
10004,353,352,338,337
10005,341,340,335,355
10006,341,346,342,345
10007,337,342,346,336
10008,15,16,338,352
10009,335,340,1,4
10010,333,5,6,347
10011,342,337,338,339
10012,345,344,340,341
10013,349,336,343,348
10014,11,351,350,10
10015,351,11,12,354
10016,354,357,353,337
10017,13,14,353,357
10018,339,338,16,17
10019,340,344,18,1
10020,345,342,339,344
** ... 7612 like lines cut
*Elset, elset=ElDummy, generate
10001,  17632,    1
**
** Make a dummy element which is not connected to anything with CPE4T
**  just so that we can have the coupled thermal-displacement
**
*Node
999996,  0.0, 0.0
999997,  .00001, 0.0
999998,  .00001, .00001
999999,  0.0, .00001
*Nset, nset=tempElement
999996,999997,999998,999999
*Element, Type=CPE4T
999999,999996,999997,999998,999999
*Elset,elset=tempElement
999999
**
**
************************************************************************
**			MATERIAL DEFINITION*Include, Input=parameter.inp
************************************************************************
**
** Material properties for the real material
**
*uel property,elset=oval-1_all
*******************************************************************
<Diff_u>,<Diff_v>,<F_const>,<k_const>,<ph>,<Tr>,<gamma>,<sigma>,
<permittivity>,<nlSdv>,<ngSdv>
*******************************************************************
**
** Dummy mesh material properties
**
*Solid section, elset=ElDummy, material=Material-1
***Hourglass stiffness
**<Ghour>
*Solid section, elset=tempElement, material=Material-2
**
*Material, name=Material-1
** The dummy mesh stiffness is very small
*User output variables
<ngSdv>
*Elastic
1.e-20
*Density
1.0
**
*Material, name=Material-2
*Elastic
1.e-20
*Conductivity
1.0
*Density
1.0
*Specific heat
1.0
**
************************************************************************
**			INITIAL CONDITIONS
************************************************************************
*Initial conditions, type=temperature
oval-1_all,  1.0,0.0,0.0
oval-1_initialpt, 0.5,0.25,0.0
*Initial Conditions, type=TEMPERATURE
tempElement, 0.0,0.0,0.0
************************************************************************
**			STEP DEFINITION
************************************************************************
*Step, name=HeatTransfer, nlgeom=YES, inc=50000, amplitude=step
*** *Coupled Temperature-displacement, steady state
*Coupled Temperature-displacement, deltmx=100.0
0.001, <time_total>, 1e-10, <dt_max>
*Controls, Parameters=Time Incrementation
,,,,,,,20,,,,,,
**
*Boundary
oval-1_all,1,6
tempElement,1,6
**
*Output, field
*node output, nset=oval-1_all
u,nt
*Element output, elset=ElDummy
le,uvarm
**
*End Step
************************************************************************
