** The electrical units are chosen so that the permittivity is unity.
**
** To interpret the simulated electric potential in volts for a real material:
**
**       real potential = simulated potential/sqrt(real permittivity)
**
** To interpret the simulated charge in coulombs for a real material:
**
**       real charge = simulated charge*sqrt(real permittivity)
**
** REDUCED INTEGRATION: In order to use reduced integration three
**     changes should be made:
**
**     1. The element type of the dummy mesh should be changed
**        from CPE4 to CPE4R.
**     2. In the Material Definition section of this input file,
**        the '*Hourglass Stiffness' command and subsequent line
**        should be uncommented.
**     3. In the UEL subroutine, nInt should be set to 1.
**
** Shuolun Wang, Nov, 2021
**
************************************************************************
**			PARAMETERS
************************************************************************
*Parameter
**
**
** diffusivity(micro^2/?)
Diff_u = 0.05*3.0e-2
Diff_v = 0.05*1.0e-2
**
** feeding rate and kill rate (1/?)
**
** Mitosis
F_const = 0.028
k_const = 0.062
**
** Solitons
***F_const = 0.03
***k_const = 0.06
**
** flower
***F_const = 0.055
***k_const = 0.062
**
** fingers
***F_const = 0.037
***k_const = 0.06
**
**
** Uskate
***F_const = 0.062
***k_const = 0.061
**
** Maze
***F_const = 0.029
***k_const = 0.057
**
**
** rate constant for ode (1/?)
ph = 10.0
** threshold
Tr = 0.1
**
**
** A rate constant to rescale time and space
gamma = 1.0
**gamma = 0.1
**
**
**
** strength constant for electric field coupling
** (micro^2 ?-1 mV-1)
sigma = 0.0
**
**
** permittivity of the brain tissue
permittivity = 1.0
**
**
** applied electric potential (millivolt)
potential_neg = -75.0
potential_pos =  75.0
**
** total simulation time (?)
time_total = 10000.0
dt_max = 50.0
**
** number of local SDV's (used in the solution proceedure)
nlSdv = 3
**
** number of global SDV's (used for plotting)
ngSdv = 3
**
**
************************************************************************
**			MODEL DEFINITION
************************************************************************
*Node
      1,   5.64517975,   1.75584447
      2,  -5.04995203,  -5.49179125
      3, -0.504736841,    6.0464673
      4,  -5.60092068,   1.88975894
      5,  -8.92188644,    3.5173254
      6,  -9.28494072,   2.39874578
      7,  -6.09478617,   -7.3995862
      8,   -5.1439147,  -8.09000015
      9,    5.1439147,  -8.09000015
     10,   6.09478617,   -7.3995862
     11,   9.28494072,   2.39874578
     12,   8.92188644,    3.5173254
     13,   0.58781755,   9.57288933
     14,  -0.58781755,   9.57288933
     15,    4.5272789,  -6.47133446
     16,   5.71601105,   1.61582196
     17,    5.8078742,   1.48860383
     18,   5.91850758,   1.37732244
     19,   6.04518747,   1.28471816
     20,   6.18479395,   1.21307087
** ... 9061 like lines cut
*User Element,Nodes=4,Type=U1,Iproperties=2,Properties=9,Coordinates=2,Variables=12,Unsymm
1,2,11,12,13
**
*Element, type=U1
  1, 486,  19,  20, 487
  2, 478,  25,  26, 491
  3,  30, 494, 493,  29
  4,  53,  54, 508, 479
  5,  39, 498, 531,  38
  6,  40, 499, 498,  39
  7,  46,  47, 503, 481
  8, 514, 525, 544, 538
  9,  35, 480, 497,  34
 10, 484,  16,  17, 485
 11,  16, 484, 483,   1
 12,  18, 477, 485,  17
 13, 487,  20,  21, 488
 14, 488,  21,  22, 600
 15, 607, 600, 489, 512
 16,  25, 478, 490,  24
 17, 519, 606, 520, 597
 18, 529,  28,  29, 493
 19,  32,  33, 496, 611
 20, 496,  33,  34, 497
** ... 8922 like lines cut
*Nset, nset=pentagon-1_all, generate
    1,  9081,     1
*Elset, elset=pentagon-1_all, generate
    1,  8942,     1
*Nset, nset=pentagon-1_initialpt
    1,    2,    3,    4,   15,   16,   17,   18,   19,   20,   21,   22,   23,   24,   25,   26
   27,   28,   29,   30,   31,   32,   33,   34,   35,   36,   37,   38,   39,   40,   41,   42
   43,   44,   45,   46,   47,   48,   49,   50,   51,   52,   53,   54,   55,   56,   57,   58
   59,   60,   61,   62,   63,   64,   65,   66,   67,   68,   69,   70,   71,   72,   73,   74
   75,   76,   77,   78,   79,   80,   81,   82,   83,   84,   85,   86,   87,   88,   89,   90
   91,   92,   93,   94,   95,   96,   97,   98,   99,  100,  101,  102,  103,  104,  105,  106
  107,  108,  109,  110,  111,  112,  113,  114,  115,  116,  117,  118,  119,  120,  121,  122
  123,  124,  125,  126,  127,  128,  129,  130,  131,  132,  133,  134,  135,  136,  137,  138
  139,  140,  141,  142,  143,  144,  145,  146,  147,  148,  149,  150,  151,  152,  153,  154
  155,  156,  157,  158,  159,  160,  161,  162,  163,  164,  165,  166,  167,  168,  169,  170
  171,  438,  439,  440,  441,  442,  443,  444,  445,  446,  447,  448,  449,  450,  451,  452
  453,  454,  455,  456,  457,  458,  459,  460,  461,  462,  463,  464,  465,  466,  467,  468
  469,  470,  471,  472,  473,  474,  475,  476,  477,  478,  479,  480,  481,  482,  483,  484
  485,  486,  487,  488,  489,  490,  491,  492,  493,  494,  495,  496,  497,  498,  499,  500
  501,  502,  503,  504,  505,  506,  507,  508,  509,  510,  511,  512,  513,  514,  515,  516
  517,  518,  519,  520,  521,  522,  523,  524,  525,  526,  527,  528,  529,  530,  531,  532
  533,  534,  535,  536,  537,  538,  539,  540,  541,  542,  543,  544,  545,  546,  547,  548
  549,  550,  551,  552,  553,  554,  555,  556,  557,  558,  559,  560,  561,  562,  563,  564
  565,  566,  567,  568,  569,  570,  571,  572,  573,  574,  575,  576,  577,  578,  579,  580
  581,  582,  583,  584,  585,  586,  587,  588,  589,  590,  591,  592,  593,  594,  595,  596
** ... 43 like lines cut
*Elset, elset=pentagon-1_initialpt
    1,    2,    3,    4,    5,    6,    7,    8,    9,   10,   11,   12,   13,   14,   15,   16
   17,   18,   19,   20,   21,   22,   23,   24,   25,   26,   27,   28,   29,   30,   31,   32
   33,   34,   35,   36,   37,   38,   39,   40,   41,   42,   43,   44,   45,   46,   47,   48
   49,   50,   51,   52,   53,   54,   55,   56,   57,   58,   59,   60,   61,   62,   63,   64
   65,   66,   67,   68,   69,   70,   71,   72,   73,   74,   75,   76,   77,   78,   79,   80
   81,   82,   83,   84,   85,   86,   87,   88,   89,   90,   91,   92,   93,   94,   95,   96
   97,   98,   99,  100,  101,  102,  103,  104,  105,  106,  107,  108,  109,  110,  111,  112
  113,  114,  115,  116,  117,  118,  119,  120,  121,  122,  123,  124,  125,  126,  127,  128
  129,  130,  131,  132,  133,  134,  135,  136,  137,  138,  139,  140,  141,  142,  143,  144
  145,  146,  147,  148,  149,  150,  151,  152,  153,  154,  155,  156,  157,  158,  159,  160
  161,  162,  163,  164,  165,  166,  167,  168,  169,  170,  171,  172,  173,  174,  175,  176
  177,  178,  179,  180,  181,  182,  183,  184,  185,  186,  187,  188,  189,  190,  191,  192
  193,  194,  195,  196,  197,  198,  199,  200,  201,  202,  203,  204,  205,  206,  207,  208
  209,  210,  211,  212,  213,  214,  215,  216,  217,  218,  219,  220,  221,  222,  223,  224
  225,  226,  227,  228,  229,  230,  231,  232,  233,  234,  235,  236,  237,  238,  239,  240
  241,  242,  243,  244,  245,  246,  247,  248,  249,  250,  251,  252,  253,  254,  255,  256
  257,  258,  259,  260,  261,  262,  263,  264,  265,  266,  267,  268,  269,  270,  271,  272
  273,  274,  275,  276,  277,  278,  279,  280,  281,  282,  283,  284,  285,  286,  287,  288
  289,  290,  291,  292,  293,  294,  295,  296,  297,  298,  299,  300,  301,  302,  303,  304
  305,  306,  307,  308,  309,  310,  311,  312,  313,  314,  315,  316,  317,  318,  319,  320
** ... 36 like lines cut
** Make the dummy mesh, shares nodes with the real mesh,
**  allows visualization of the results, access to
**  hourglass controls, and access to mechanical,
**  traction-type boundary conditions
**
*Element, type=CPE4
10001,486,19,20,487
10002,478,25,26,491
10003,30,494,493,29
10004,53,54,508,479
10005,39,498,531,38
10006,40,499,498,39
10007,46,47,503,481
10008,514,525,544,538
10009,35,480,497,34
10010,484,16,17,485
10011,16,484,483,1
10012,18,477,485,17
10013,487,20,21,488
10014,488,21,22,600
10015,607,600,489,512
10016,25,478,490,24
10017,519,606,520,597
10018,529,28,29,493
10019,32,33,496,611
10020,496,33,34,497
** ... 8922 like lines cut
*Elset, elset=ElDummy, generate
10001,  18942,    1
**
** Make a dummy element which is not connected to anything with CPE4T
**  just so that we can have the coupled thermal-displacement
**
*Node
999996,  0.0, 0.0
999997,  .00001, 0.0
999998,  .00001, .00001
999999,  0.0, .00001
*Nset, nset=tempElement
999996,999997,999998,999999
*Element, Type=CPE4T
999999,999996,999997,999998,999999
*Elset,elset=tempElement
999999
**
**
**
**
************************************************************************
**			MATERIAL DEFINITION*Include, Input=parameter.inp
************************************************************************
**
** Material properties for the real material
**
*uel property,elset=pentagon-1_all
*******************************************************************
<Diff_u>,<Diff_v>,<F_const>,<k_const>,<ph>,<Tr>,<gamma>,<sigma>,
<permittivity>,<nlSdv>,<ngSdv>
*******************************************************************
**
** Dummy mesh material properties
**
*Solid section, elset=ElDummy, material=Material-1
***Hourglass stiffness
**<Ghour>
*Solid section, elset=tempElement, material=Material-2
**
*Material, name=Material-1
** The dummy mesh stiffness is very small
*User output variables
<ngSdv>
*Elastic
1.e-20
*Density
1.0
**
*Material, name=Material-2
*Elastic
1.e-20
*Conductivity
1.0
*Density
1.0
*Specific heat
1.0
**
************************************************************************
**			INITIAL CONDITIONS
************************************************************************
*Initial conditions, type=temperature
pentagon-1_all,  1.0,0.0,0.0
pentagon-1_initialpt, 0.5,0.25,0.0
*Initial Conditions, type=TEMPERATURE
tempElement, 0.0,0.0,0.0
************************************************************************
**			STEP DEFINITION
************************************************************************
*Step, name=HeatTransfer, nlgeom=YES, inc=50000, amplitude=step
*** *Coupled Temperature-displacement, steady state
*Coupled Temperature-displacement, deltmx=100.0
0.001, <time_total>, 1e-10, <dt_max>
*Controls, Parameters=Time Incrementation
,,,,,,,20,,,,,,
**
*Boundary
pentagon-1_all,1,6
tempElement,1,6
**
*Output, field
*node output, nset=pentagon-1_all
u,nt
*Element output, elset=ElDummy
le,uvarm
**
*End Step
************************************************************************
